CM --- NEC2 Input File created or edited by xnec2c 4.4.12 ---
CE --- End Comments ---
SYM freq := 145637,5
SYM c := 300000
SYM vk := 0,96
SYM dist := 0,015
SYM lambda := vk * c / freq
GSYM scale := [0,7...1,5]
SYM r := 0,0025 
SYM lamq := scale * (lambda / 4)
SYM lamqt := scale * (lambda / 12)
SYM base :=  2
GW     1    15   0,00000E+00       0,00000E+00    base+lamq             0,00000E+00        0,00000E+00  base    r
GW     2    15   0,00000E+00-dist  0              base+lamqt            0,00000E+00-dist   0            base    r
GW     3    3    0,00000E+00-dist  0              base                  0,00000E+00        0            base    r
GE    -1     0   0,00000E+00  0,00000E+00  0,00000E+00  0,00000E+00  0,00000E+00  0,00000E+00  0,00000E+00
FR     0    30     0     0  1,43800E+02  0,08200E+00  1,46200E+02  0,00000E+00  0,00000E+00  0,00000E+00
LD     5     0     0      0  2,48000E+07  0,00000E+00  0,00000E+00  0,00000E+00  0,00000E+00  0,00000E+00
GN     2     0     0      0  1,20000E+01  1,00000E-02  0,00000E+00  0,00000E+00  0,00000E+00  0,00000E+00
EX     0     3     2      0  1,00000E+00  0,00000E+00  0,00000E+00  0,00000E+00  0,00000E+00  0,00000E+00
EK     -1     0     0      0  0,00000E+00  0,00000E+00  0,00000E+00  0,00000E+00  0,00000E+00  0,00000E+00
RP     0    18    72   1000  0,00000E+00  0,00000E+00  5,00000E+00  5,00000E+00  1,00000E+01  0,00000E+00
EN     0     0     0      0  0,00000E+00  0,00000E+00  0,00000E+00  0,00000E+00  0,00000E+00  0,00000E+00
