CM 	--- NEC2 Input File created or edited by xnec2c 3.5 ---
CM 	2m Extended (Double Zeppelin) Yagi
CE 	--- End Comments ---
GW 	          1	         73	  1,5161538	        0,0	        0,0	 -1,5161538	        0,0	        0,0	     7,5e-3
GW 	          2	         61	  1,4797406	  0,4663702	        0,0	 -1,4797406	  0,4663702	        0,0	     7,5e-3
GW 	          3	         21	 0,47743845	  1,6439397	        0,0	-0,47743845	  1,6439397	        0,0	     7,5e-3
GE 	0	0	0,00000E+00	0,00000E+00	0,00000E+00	0,00000E+00	0,00000E+00	0,00000E+00	0,00000E+00
EX 	0	2	31	0	1,00000E+00	0,00000E+00	0,00000E+00	0,00000E+00	0,00000E+00	0,00000E+00
RP 	0	73	73	0	0,00000E+00	0,00000E+00	2,50000E+00	5,00000E+00	0,00000E+00	0,00000E+00
FR 	0	30	0	0	1,43800E+02	0,08200E+00	1,46200E+02	0,00000E+00	0,00000E+00	0,00000E+00
EN 	0	0	0	0	0,00000E+00	0,00000E+00	0,00000E+00	0,00000E+00	0,00000E+00	0,00000E+00
