CM 	--- NEC2 Input File created or edited by xnec2c 4.4.12 ---
CE 	--- End Comments ---
GW     1     3   0,00000E+00  0,00000E+00  5,69787E+00  0,00000E+00  0,00000E+00  5,67787E+00  2,50000E-03
GW     2    10  -2,58876E-01  0,00000E+00  6,06537E+00 -2,58876E-01  0,00000E+00  5,90062E+00  2,50000E-03
GW     3    10  -2,58876E-01  0,00000E+00  5,90062E+00  0,00000E+00  0,00000E+00  5,69787E+00  2,50000E-03
GW     4    10  -2,58876E-01  0,00000E+00  5,31038E+00 -2,58876E-01  0,00000E+00  5,47513E+00  2,50000E-03
GW     5    10  -2,58876E-01  0,00000E+00  5,47513E+00  0,00000E+00  0,00000E+00  5,67787E+00  2,50000E-03
GW     6    10   2,58876E-01  0,00000E+00  6,06537E+00  2,58876E-01  0,00000E+00  5,90062E+00  2,50000E-03
GW     7    10   2,58876E-01  0,00000E+00  5,90062E+00  0,00000E+00  0,00000E+00  5,69787E+00  2,50000E-03
GW     8    10   2,58876E-01  0,00000E+00  5,31038E+00  2,58876E-01  0,00000E+00  5,47513E+00  2,50000E-03
GW     9    10   2,58876E-01  0,00000E+00  5,47513E+00  0,00000E+00  0,00000E+00  5,67787E+00  2,50000E-03
GE    -1     0   0,00000E+00  0,00000E+00  0,00000E+00  0,00000E+00  0,00000E+00  0,00000E+00  0,00000E+00
FR     0    50     0     0  1,43800E+02  4,89796E-02  1,46200E+02  0,00000E+00  0,00000E+00  0,00000E+00
FR     0    50     0     0  4,30000E+02  2,04082E-01  4,40000E+02  0,00000E+00  0,00000E+00  0,00000E+00
LD     5     0     0      0  2,48000E+07  0,00000E+00  0,00000E+00  0,00000E+00  0,00000E+00  0,00000E+00
GN     2     0     0      0  1,20000E+01  1,00000E-02  0,00000E+00  0,00000E+00  0,00000E+00  0,00000E+00
EX     0     1     2      0  1,00000E+00  0,00000E+00  0,00000E+00  0,00000E+00  0,00000E+00  0,00000E+00
EK    -1     0     0      0  0,00000E+00  0,00000E+00  0,00000E+00  0,00000E+00  0,00000E+00  0,00000E+00
RP     0    18    72   1000  0,00000E+00  0,00000E+00  5,00000E+00  5,00000E+00  1,00000E+01  0,00000E+00
EN     0     0     0      0  0,00000E+00  0,00000E+00  0,00000E+00  0,00000E+00  0,00000E+00  0,00000E+00
