CM 	--- NEC2 Input File created or edited by xnec2c 4.4.12 ---
CE 	--- End Comments ---
GW 	          1	          3	        0,0	        0,0	   5,810059	        0,0	        0,0	  5,7900586	     2,5e-3
GW 	          2	         10	 -0,2292725	        0,0	   6,201668	 -0,2292725	        0,0	   6,039244	     2,5e-3
GW 	          3	         10	 -0,2292725	        0,0	   6,039244	        0,0	        0,0	   5,810059	     2,5e-3
GW 	          4	         10	 -0,2292725	        0,0	  5,3984504	 -0,2292725	        0,0	  5,5608735	     2,5e-3
GW 	          5	         10	 -0,2292725	        0,0	  5,5608735	        0,0	        0,0	  5,7900586	     2,5e-3
GW 	          6	         10	  0,2292725	        0,0	   6,201668	  0,2292725	        0,0	   6,039244	     2,5e-3
GW 	          7	         10	  0,2292725	        0,0	   6,039244	        0,0	        0,0	   5,810059	     2,5e-3
GW 	          8	         10	  0,2292725	        0,0	  5,3984504	  0,2292725	        0,0	  5,5608735	     2,5e-3
GW 	          9	         10	  0,2292725	        0,0	  5,5608735	        0,0	        0,0	  5,7900586	     2,5e-3
GE 	-1	0	0,00000E+00	0,00000E+00	0,00000E+00	0,00000E+00	0,00000E+00	0,00000E+00	0,00000E+00
FR 	0	50	0	0	1,43800E+02	4,89796E-02	1,46200E+02	0,00000E+00	0,00000E+00	0,00000E+00
FR 	0	50	0	0	4,30000E+02	2,04082E-01	4,40000E+02	0,00000E+00	0,00000E+00	0,00000E+00
LD 	5	0	0	0	2,48000E+07	0,00000E+00	0,00000E+00	0,00000E+00	0,00000E+00	0,00000E+00
GN 	2	0	0	0	1,20000E+01	1,00000E-02	0,00000E+00	0,00000E+00	0,00000E+00	0,00000E+00
EX 	0	1	2	0	1,00000E+00	0,00000E+00	0,00000E+00	0,00000E+00	0,00000E+00	0,00000E+00
EK 	-1	0	0	0	0,00000E+00	0,00000E+00	0,00000E+00	0,00000E+00	0,00000E+00	0,00000E+00
RP 	0	18	72	1000	0,00000E+00	0,00000E+00	5,00000E+00	5,00000E+00	1,00000E+01	0,00000E+00
EN 
