CM 	--- NEC2 Input File created or edited by xnec2c 4.4.12 ---
CE 	--- End Comments ---
GW     1    15  -3,16870E-01  0,00000E+00  4,03972E+00  3,16870E-01  0,00000E+00  4,03972E+00  1,50197E-01
GE    -1     0   0,00000E+00  0,00000E+00  0,00000E+00  0,00000E+00  0,00000E+00  0,00000E+00  0,00000E+00
LD     5     0     0      0  2,48000E+07  0,00000E+00  0,00000E+00  0,00000E+00  0,00000E+00  0,00000E+00
GN     2     0     0      0  1,20000E+01  1,00000E-02  0,00000E+00  0,00000E+00  0,00000E+00  0,00000E+00
EX     0     1     7      0  1,00000E+00  0,00000E+00  0,00000E+00  0,00000E+00  0,00000E+00  0,00000E+00
EK    -1     0     0      0  0,00000E+00  0,00000E+00  0,00000E+00  0,00000E+00  0,00000E+00  0,00000E+00
RP     0    18    72   1000  0,00000E+00  0,00000E+00  5,00000E+00  5,00000E+00  1,00000E+01  0,00000E+00
FR     0   600     0     0  4,90000E+01  6,86144E-01  4,60000E+02  0,00000E+00  0,00000E+00  0,00000E+00
EN     0     0     0      0  0,00000E+00  0,00000E+00  0,00000E+00  0,00000E+00  0,00000E+00  0,00000E+00
