CM 	--- NEC2 Input File created or edited by xnec2c 4.4.12 ---
CE 	--- End Comments ---
GW 	          1	         15	-0,45896268	        0,0	   3,188958	 0,45896268	        0,0	   3,188958	2,6705034e-2
GE 	-1	0	0,00000E+00	0,00000E+00	0,00000E+00	0,00000E+00	0,00000E+00	0,00000E+00	0,00000E+00
FR 	0	30	0	0	1,43800E+02	0,08200E+00	1,46200E+02	0,00000E+00	0,00000E+00	0,00000E+00
LD 	5	0	0	0	2,48000E+07	0,00000E+00	0,00000E+00	0,00000E+00	0,00000E+00	0,00000E+00
GN 	2	0	0	0	1,20000E+01	1,00000E-02	0,00000E+00	0,00000E+00	0,00000E+00	0,00000E+00
EX 	0	1	7	0	1,00000E+00	0,00000E+00	0,00000E+00	0,00000E+00	0,00000E+00	0,00000E+00
EK 	-1	0	0	0	0,00000E+00	0,00000E+00	0,00000E+00	0,00000E+00	0,00000E+00	0,00000E+00
RP 	0	18	72	1000	0,00000E+00	0,00000E+00	5,00000E+00	5,00000E+00	1,00000E+01	0,00000E+00
EN 	0	0	0	0	0,00000E+00	0,00000E+00	0,00000E+00	0,00000E+00	0,00000E+00	0,00000E+00
