CM 	--- NEC2 Input File created or edited by xnec2c 4.4.12 ---
CE 	--- End Comments ---
GW 	          1	         15	        0,0	        0,0	  2,5511217	        0,0	        0,0	  1,0916767	     2,0e-3
GW 	          5	         15	        0,0	        0,0	  1,0916767	        0,0	        0,0	        1,0	     2,0e-3
GW 	          2	         15	     1,2e-2	        0,0	  1,4938271	     1,2e-2	        0,0	  1,0916767	     2,0e-3
GW 	          6	         15	     1,2e-2	        0,0	  1,0916767	     1,2e-2	        0,0	        1,0	     2,0e-3
GW 	          3	          3	        0,0	        0,0	        1,0	     1,2e-2	        0,0	        1,0	     2,0e-3
GW 	          4	          3	     1,2e-2	        0,0	  1,0916767	        0,0	        0,0	  1,0916767	     2,0e-3
GE 	-1	0	0,00000E+00	0,00000E+00	0,00000E+00	0,00000E+00	0,00000E+00	0,00000E+00	0,00000E+00
FR 	0	40	0	0	1,43000E+02	1,02564E-01	1,47000E+02	0,00000E+00	0,00000E+00	0,00000E+00
LD 	5	0	0	0	2,48000E+07	0,00000E+00	0,00000E+00	0,00000E+00	0,00000E+00	0,00000E+00
GN 	2	0	0	0	1,20000E+01	1,00000E-02	0,00000E+00	0,00000E+00	0,00000E+00	0,00000E+00
EX 	0	4	2	0	1,00000E+00	0,00000E+00	0,00000E+00	0,00000E+00	0,00000E+00	0,00000E+00
EK 	1	0	0	0	0,00000E+00	0,00000E+00	0,00000E+00	0,00000E+00	0,00000E+00	0,00000E+00
RP 	0	18	72	1000	0,00000E+00	0,00000E+00	5,00000E+00	5,00000E+00	1,00000E+01	0,00000E+00
EN 
