CM 	--- NEC2 Input File created or edited by xnec2c 4.4.12 ---
CE 	--- End Comments ---
GW 	          1	         15	-0,47423062	        0,0	        2,0	 0,47423062	        0,0	        2,0	     5,0e-3
GW 	          2	         15	 -0,5467484	  0,3120253	        2,0	  0,5467484	  0,3120253	        2,0	     5,0e-3
GW 	          3	         15	  -0,386446	-0,43736878	        2,0	   0,386446	-0,43736878	        2,0	     5,0e-3
GE 	-1	0	0,00000E+00	0,00000E+00	0,00000E+00	0,00000E+00	0,00000E+00	0,00000E+00	0,00000E+00
FR 	0	30	0	0	1,43800E+02	0,08200E+00	1,46200E+02	0,00000E+00	0,00000E+00	0,00000E+00
LD 	5	0	0	0	2,48000E+07	0,00000E+00	0,00000E+00	0,00000E+00	0,00000E+00	0,00000E+00
GN 	2	0	0	0	1,20000E+01	1,00000E-02	0,00000E+00	0,00000E+00	0,00000E+00	0,00000E+00
EX 	0	1	7	0	1,00000E+00	0,00000E+00	0,00000E+00	0,00000E+00	0,00000E+00	0,00000E+00
EK 	-1	0	0	0	0,00000E+00	0,00000E+00	0,00000E+00	0,00000E+00	0,00000E+00	0,00000E+00
RP 	0	18	72	1000	0,00000E+00	0,00000E+00	5,00000E+00	5,00000E+00	1,00000E+01	0,00000E+00
EN 
