CM --- NEC2 Input File created or edited by xnec2c 4.4.12 ---
CE --- End Comments ---
BND 70cm  430.000 440.000 25
BND 2m    144.000 146.000 25
SYM c := 300000
SYM vk := 0.96
SYM height := 7
SYM len_a := 0.25 * vk * c / 435000
SYM len_b := 0.25 * vk * c / 144500
GSYM distance := [0.03...0.07]
SYM dia := 0.0012
GW     1    31   0.0    0.5  height-len_a  0.00000E+00  0.5   height+len_a dia
GW     2    31   distance    0.5   height-len_b  distance  0.5   height+len_b dia
GW     3    3    0      0.5            height        distance       0.5            height        dia
GE    -1     0   0.00000E+00  0.00000E+00  0.00000E+00  0.00000E+00  0.00000E+00  0.00000E+00  0.00000E+00
FR     0   150     0     0  4,25000E+02  2,34899E-01  4,45000E+02  0,00000E+00  0,00000E+00  0,00000E+00
FR     0    50     0     0  1,4350E+02  4,08163E-02  1,45500E+02  0,00000E+00  0,00000E+00  0,00000E+00
LD     5     0     0      0  2.48000E+07  0.00000E+00  0.00000E+00  0.00000E+00  0.00000E+00  0.00000E+00
GN     2     0     0      0  1.20000E+01  1.00000E-02  0.00000E+00  0.00000E+00  0.00000E+00  0.00000E+00
EX     0     2     15      0  1.00000E+00  0.00000E+00  0.00000E+00  0.00000E+00  0.00000E+00  0.00000E+00
EK     -1     0     0      0  0.00000E+00  0.00000E+00  0.00000E+00  0.00000E+00  0.00000E+00  0.00000E+00
RP     0    18    72   1000  0.00000E+00  0.00000E+00  5.00000E+00  5.00000E+00  1.00000E+01  0.00000E+00
EN     0     0     0      0  0.00000E+00  0.00000E+00  0.00000E+00  0.00000E+00  0.00000E+00  0.00000E+00
